Error: .include filename missing
Circuit: * F:\Engineering\3 Power\Second Term\PE\Dr Amr Taha\Project 1\project 1 - analogue firing circuit.asc

WARNING: Node N011 is floating.
WARNING: Node NC_03 is floating.

WARNING: Less than two connections to node NC_01.  This node is used by Q2.
WARNING: Less than two connections to node NC_02.  This node is used by Q2.
WARNING: Less than two connections to node NC_03.  This node is used by R6.
WARNING: Less than two connections to node N001.  This node is used by V1.
Direct Newton iteration for .op point succeeded.

Date: Wed Jun 01 23:48:36 2022
Total elapsed time: 0.642 seconds.

tnom = 27
temp = 27
method = modified trap
totiter = 44318
traniter = 44283
tranpoints = 15721
accept = 11450
rejected = 4271
matrix size = 45
fillins = 44
solver = Normal
Thread vector: 10.1/5.9[3] 2.7/2.6[1] 1.5/1.8[1] 0.2/1.2[1]  2592/500
Matrix Compiler1: 6.89 KB object code size  1.1/0.7/[0.3]
Matrix Compiler2: 4.81 KB object code size  0.4/0.6/[0.3]

